<?xml version="1.0" encoding="UTF-8"?>

<!-- generated on Mon Oct  8 16:58:03 2018 by SUMO duarouter Version 0.32.0
<?xml version="1.0" encoding="UTF-8"?>

<configuration xmlns:xsi="http://www.w3.org/2001/XMLSchema-instance" xsi:noNamespaceSchemaLocation="http://sumo.dlr.de/xsd/duarouterConfiguration.xsd">

    <input>
        <net-file value="data/bolognaringway.net.xml"/>
        <route-files value="trips.trips.xml"/>
    </input>

    <output>
        <output-file value="data/bolognaringwayRandom.rou.xml"/>
        <alternatives-output value="data/bolognaringwayRandom.rou.alt.xml"/>
    </output>

    <processing>
        <ignore-errors value="true"/>
    </processing>

    <time>
        <begin value="0"/>
        <end value="1000.0"/>
    </time>

    <report>
        <no-warnings value="true"/>
        <no-step-log value="true"/>
    </report>

</configuration>
-->

<routes xmlns:xsi="http://www.w3.org/2001/XMLSchema-instance" xsi:noNamespaceSchemaLocation="http://sumo.dlr.de/xsd/routes_file.xsd">
    <vehicle id="1" depart="1.00">
        <route edges="32242282#2 152026706 23218805 23189293#8 23189293#10 32210009#1 238688553#1 298745600#1 298745600#2 298745600#3 238688597 238688596#1 238688596#2 238688596#3 238688596#4 238688596#5 238688596#6 238688596#9 238688596#10 82544186#0 32942505#0 32942505#3 32479333#0 205409334#0 205409334#1 205409334#2 32942500#0 32942500#1 23253102 23275450#0 23275450#2 23275450#3 23275450#4 23275450#5 80655891#0 80655891#1 80655891#2 33831417#0 33831417#1 281681813#3 281681813#4 281681811#0 281681811#1 239881751#0 239881751#1 151824716 151824728#0 151824728#2 151824728#4 34524852 151772099 23288957#2 23288957#4 35855793#0 35855793#1 23290045 -150604#0 151766116#0"/>
    </vehicle>
    <vehicle id="2" depart="2.00">
        <route edges="-299421429#0 299421427#0 299421427#1 299421435#0 299421435#1 -24589437#2 -24589437#1 -24589437#0 41277857#8 41277857#14 23815777 23815790#0 23815790#2 56870101 231370442 56061733#1 56061733#2 56061733#3 -24266527#3 171933231#0 171933231#1"/>
    </vehicle>
    <vehicle id="3" depart="3.00">
        <route edges="23289951#4 119742496 -257707685#2 -257707685#1 -257707685#0 -23289817 -27032657#2 -27032657#1 -27032657#0 -151732525#1 -151732525#0 151732524#1 151732524#2 151732544#3 151732544#4 -151732528#3 -151732528#2 -151732528#1 -151732528#0 -23296607#1 -34524142#4 -34524142#1 -131881833 --150606#4 --150606#2 --150606#1 -23296623#1 150018080#0 293300505#4 150018085#0"/>
    </vehicle>
    <vehicle id="4" depart="4.00">
        <route edges="-37711923#2 -37711923#1 -37711923#0 -37711918 30824033#1 292179033#0 292179033#2 292179033#3 292179033#4 292179033#5 23295984#1 23295984#2 23296952#1 34035752#0 34035752#1 34035752#2 34035752#3 95408280 23271710 23271717#0 95408277#0 33758430 30853431#1 30044974#1 30959664#0 30959664#1 30959664#2 33759876#0 -233088656#2 23296886#0 23296886#1 23296886#2 -205409334#1 -205409334#0 -32479333#1 -8116113#9 -8116113#7 -8116113#3 23189293#0 23189293#1 23189293#2 23189293#3 23189293#4 23189293#5 23189293#6 23189293#8 23189293#10 32210009#1 32242391 23271969#0 23271960#1 32242377 32242381#1 30067556 32242401"/>
    </vehicle>
    <vehicle id="5" depart="5.00">
        <route edges="25155150#0 25155150#1 25155150#2 23602805#0 23602805#1 56061733#0 56061733#1 56061733#2 56061733#3 41277856#0 41277856#3 -32003370#1 -23452985#1 43205393#1 23453044#0 33831606 23453044#4 33831608 97076091 34395278#1 93783755#0 93783755#1 23288823#0 23288823#1 23288823#2 23183655#0 23183655#1 298745601#1 298745601#3 298745601#4 298745601#5 298745600#0 298745600#1 298745600#2 298745600#3 238688597 238688596#1 238688596#2 238688596#3 238688596#4 238688596#5 238688596#6 238688596#9 238688596#10 8116114 32941914#0 32941914#1 32941914#2"/>
    </vehicle>
    <vehicle id="6" depart="6.00">
        <route edges="-33523355#1 -33523355#0 23276766 248200212#0 248200212#2 33523578#0 33523578#3 82549440#0 82549440#1 82549440#2 23837909#4 23837909#5 23837909#6 23288945#0 23288945#1 23288945#2 23288945#4 23288945#5 151772110#0 34524834 23289608#0 23289608#1 23289608#2 23289608#3 23296619#0 23296619#1 -27032657#0 -151732525#1 -151732525#0 151732524#1"/>
    </vehicle>
    <vehicle id="7" depart="7.00">
        <route edges="23837911#1 23837911#2 292179033#0 292179033#2 292179033#3 292179033#4 292179033#5 292179033#7 23288923#1 23288923#2 132262795#0 132262795#1 135982518 49480926#0 231107741 135982514 135982510#0 135982510#1 135982486#0 135982529 135982532 135982478 23288888#1 23288888#2 -135982498#0 -150052414#2 -150052414#1 -150052414#0 -150052412 260210045 260210046 149955205#2 149955205#3 32064573#0 23275370#3 23275370#5 55302014#0 55302014#2 -31743212#2 -31743212#1 23275345#0 23275345#2 -288787060#3 -288787060#2 -288787060#0 -23453129"/>
    </vehicle>
    <vehicle id="8" depart="8.00">
        <route edges="-53290464#0 53238690#3 23621960#1 41277857#0 41277857#5 23443899 24589437#1 24589437#2 24589437#3 24589437#4 24589437#5 24589437#6 24589437#8 -31743212#2 -31743212#1 23275345#0 23275345#2 23275345#3 23275345#4 23275345#5 23275345#6 23275345#7 23275345#8 23275345#9 23275345#10 23275345#11 149955204 23183655#0 23183655#1 298745601#1 298745601#3 298745601#4 23276348 23276384 23271629#2 23184464#0 23184464#1 135982505#4 135982505#5 135982505#6 135982505#7 135982505#8 23271701#7 95408281#0 95408281#1 132262793 -33489760#1 23271710 34035657#1 33523243"/>
    </vehicle>
    <vehicle id="10" depart="10.00">
        <route edges="23837911#2 292179033#0 292179033#2 292179033#3 292179033#4 292179033#5 23295984#1 23295984#2 23296952#1 34035752#0 34035752#1 23271781#0 23271781#1 132262786#0 23271808 30893573 34347629#2 30887578#0 30887578#1 95408276#7 23189459#0 23189459#1 23189459#2 23189459#3 135982505#5 135982505#6 135982505#7 23276410#0 23276410#1 11480374#10 11480374#11 11480374#12 11480374#13 260898977#0 260898977#1 260898977#2 260898977#3 260898977#4 23271947#0 32942447 172198432 23210836#0 23210836#2 23210836#3 77955974 231111018#0 231111018#1 231111018#2 43205393#3 43205393#4 23452985#0 23452985#2 23621960#0 23621960#1 31785433#0 23815777 23815790#0 23815790#2 23753384#0 56870105 149546362"/>
    </vehicle>
    <vehicle id="11" depart="11.00">
        <route edges="109329036#0 109329036#1 -257707685#0 -23289817 -27032657#2 -27032657#1 -27032657#0 -151732525#1 -151732525#0 151732524#1 151732524#2 151732544#3 151732544#4 -151732528#3 -151732528#2 -151732528#1 -151732528#0 -23296607#1 -34524142#4 -34524142#1 -131881833 --150606#4 --150606#2 --150606#1 -23296623#1 150018080#0 293300505#4 150018085#0 -43469287#3 23189364#4 23189364#5"/>
    </vehicle>
    <vehicle id="12" depart="12.00">
        <route edges="-32942500#0 -205409334#3 -205409334#1 -205409334#0 -32479333#1 -32942505#7 -32942505#2 -82544186#2 8116114 32941914#0 32941914#1 32941914#2 32941914#5 32941914#6 95408276#0 95408276#1 95408276#2 95408276#3 95408276#4 95408276#5"/>
    </vehicle>
    <vehicle id="13" depart="13.00">
        <route edges="23271710 23271717#0 95408277#0 33758430 30853431#1 30044974#1 30959664#0 30959664#1 30959664#2 33759876#0 -233088656#2 23296886#0 23296886#1 23296886#2 -205409334#1 -205409334#0 -32479333#1 -32942505#7 -32942505#2 -82544186#2 8116114 11480374#0 11480374#2 11480374#3 11480374#4 11480374#6 11480374#7 11480374#8 11480374#9 11480374#10 11480374#11"/>
    </vehicle>
    <vehicle id="14" depart="14.00">
        <route edges="93783755#1 -176180#0 -176180#1 260481406#0 260481406#2 260481406#3 260481406#4 260481406#5 260481406#7 260481406#8 260481406#9 260481406#10 260481406#12 23185864#0 23185864#4 23185864#5 205519269#1 150018078 293300505#0 150018081#0 23296623#0 -150606#0 -150606#2 -150606#3 131881833 132006073#0 132006073#2 151737993#0 151737993#1 23288757#0 23288757#1 23288757#2 23288757#4 23288757#5 151824728#0 151824728#2 151824728#4 34524852 23289608#0 23289608#1 23289608#2 23289608#3 23289608#4 23289608#5 23289608#6 23289608#7 23289817 257707685#0 257707685#1 257707685#2 119742500#0 26256667 23289833#0"/>
    </vehicle>
    <vehicle id="16" depart="16.00">
        <route edges="-23296863 23276104 32942500#0 32942500#1 23253102 23275450#0 23275450#2 23275450#3 23275450#4 23275450#5 80655891#0 80655891#1 80655891#2 33831417#0 33831417#1 281681813#3 281681813#4"/>
    </vehicle>
    <vehicle id="17" depart="17.00">
        <route edges="23289836#0 -23289817 -27032657#2 -27032657#1 -27032657#0 -151732525#1 -151732525#0 151732524#1 151732524#2 151732544#3 151732544#4 -151732528#3 -151732528#2 -151732528#1 -23296604 27032615#1 23296613"/>
    </vehicle>
    <vehicle id="18" depart="18.00">
        <route edges="23289833#2 132648781 -257707685#1 -257707685#0 -23289817 -27032657#2 -27032657#1 -27032657#0 23296590#0 23296590#1 34549810 23288757#4 23288757#5 151824728#0 151824728#2 151824728#4 34524852 -34524834 151772101 34524878#0 34524878#1 34524878#2 33832076 43469298#0 43469298#1 43469298#2 43469298#4 43469298#5 -32942500#1 -32942500#0 -205409334#3 -205409334#1 -205409334#0 -32479333#1 -32942505#7 -32942505#2 -82544186#2 8116114 11480374#0 11480374#2 11480374#3 11480374#4 11480374#6 11480374#7 11480374#8 11480374#9 11480374#10 11480374#11 11480374#12 11480374#13 260898977#0 260898977#1 260898977#2 260898977#3 260898977#4 260898977#5 260898977#6 260898977#7 32942367 296932687#1 23288872#0 -34351517 23288888#5"/>
    </vehicle>
    <vehicle id="20" depart="20.00">
        <route edges="216677152#2 216677152#4 216677152#5 216677152#0 216930806 23621681#3 23621681#4 41277857#14 23815777 77960510#0 -32003370#1 -23452985#1 43205393#1 23453044#0 33831606 23453044#4 33831608 23288787#3 34395250 34395273#2 34395064#0 34395064#1 34395064#2 260481406#5 260481406#7 260481406#8 260481406#9 260481406#10 260481406#12 23185864#0 23185864#4 32479265#0 23189364#0 23189364#1 23189364#2 -43469287#2 -43469287#1 -43469287#0 -80655879#9 -80655879#8 -80655879#6 -80655879#5 -80655879#3 -80655879#2 -80655879#0 -23253102 -32942500#1 -32942500#0 23276047 23276054#0"/>
    </vehicle>
    <vehicle id="21" depart="21.00">
        <route edges="-56061733#4 39783305#0 39783305#2 39783305#3 -41277863 -24266527#0 39673908#1 39673908#3 39673908#4 39673908#5 34395250 34395273#2 34395064#0 34395064#1 34395064#2 260481406#5 260481406#7 260481406#8 260481406#9 260481406#10 260481406#12 23185864#0 23185864#4 32479265#0 23189364#0 23189364#1 23189364#2 -43469287#2 -43469287#1 -43469287#0 -80655879#9 -80655879#8 -80655879#6 -80655879#5 -80655879#3 -231264058 -23275450#1 80655879#0"/>
    </vehicle>
    <vehicle id="22" depart="22.00">
        <route edges="150810468#3 150810468#1 150810468#2 163923710 40872975#2 40872975#3 77960510#0 -32003370#1 -23452985#1 43205393#1 23453044#0 33831606 23453044#4 33831608 23288787#3 34395250 34395273#2 34395064#0 34395064#1 34395064#2 260481406#5 260481406#7 260481406#8 260481406#9 260481406#10 260481406#12 23185864#0 23185864#4 32479265#0 23189364#0 23189364#1 23189364#2 -43469287#2 -43469287#1 -43469287#0 -80655879#9 -80655879#8 -80655879#6 -80655879#5 -80655879#3 -80655879#2 -80655879#0 -23253102 -183743755 -23185863#1 -23185863#0 23271728#0 23271728#1 23276766 248200212#0 248200212#2 33523466#0"/>
    </vehicle>
    <vehicle id="23" depart="23.00">
        <route edges="131881833 132006073#0 132006073#2 151737993#0 151737993#1 132003833#0 151732541#0 151732541#1 151737998#0 151737998#1 23295215#0 23295290 23295321#0 23295321#1 281681812#2 -80655891#1 -80655891#0 -23275450#5 -23275450#4 -23275450#3 -23275450#2 -23275450#1 -23253102 -183743755 -23185863#1 -23185863#0 23271728#0 23271728#1 23276766 23276195#0 -231108881 292179033#0 292179033#2 292179033#3 292179033#4 292179033#5 23295984#1 23295984#2 23296952#1 34035752#0 23271799#0"/>
    </vehicle>
    <vehicle id="24" depart="24.00">
        <route edges="163787530#21 163787530#22 163787530#23 83202928 23271744 33757835#0 33757835#1 82549439 82549438 23185863#0 23185863#1 82549445 23253102 80655879#0 80655879#1 80655879#3 80655879#4 80655879#6 80655879#7 80655879#9 43469287#0 43469287#1 43469287#2 43469287#3 150018086#0 205519269#0 -23185864#7 -23185864#4 -23185864#3 32497485#0 80363141#0 23184327#1 -231110042 23288767#8 23288767#9"/>
    </vehicle>
    <vehicle id="25" depart="25.00">
        <route edges="239881751#1 151824722#0 151824722#2 151824722#3 151732551 151737998#1 23295215#0 23295290 23295321#0 23295321#1 281681812#2 -80655891#1 -80655891#0 -23275450#5 -23275450#4 -23275450#3 -23275450#2 -23275450#1 -23253102 -32942500#1 -32942500#0 -205409334#3 -205409334#1 -205409334#0 -32479333#1 -32942505#7 -32942505#2 -82544186#2 8116114 11480374#0 11480374#2 11480374#3 11480374#4 11480374#6 11480374#7 11480374#8 11480374#9 11480374#10 11480374#11 11480374#12 11480374#13 23184464#0 23184464#1"/>
    </vehicle>
    <vehicle id="26" depart="26.00">
        <route edges="98387481#0 98387481#1 135982515#4 150026666 23296215#0 33747765#0 33747765#1 33747765#2 33747765#3 23288888#1 23288888#2 23288888#3 23288888#5 23288868 83078456#0 83078456#1 301242139 23210836#0 23210836#2 23210836#3 --176209 -176180#0 -176180#1 260481406#0 260481406#2 260481406#3 260481406#4 260481406#5 260481406#7 260481406#8 260481406#9 260481406#10 260481406#12 23185864#0 23185864#4 32479265#0 23189364#0 23189364#1 23189364#2 23189364#4 23189364#5 34549328"/>
    </vehicle>
    <vehicle id="27" depart="27.00">
        <route edges="-33758861#0 32242675#0 32242675#2 -33759873 233088656#0 233088656#1 23296886#0 23296886#1 23296886#2 -205409334#1 -205409334#0 -32479333#1 -32942505#7 -32942505#2 -82544186#2 8116114 11480374#0 11480374#2 11480374#3 11480374#4 11480374#6 11480374#7 11480374#8 11480374#9 11480374#10 11480374#11 11480374#12 11480374#13 260898977#0 260898977#1 260898977#2 260898977#3 260898977#4 260898977#5 260898977#6 260898977#7 32942367 296932687#1 23288872#0 23288872#1 -135982498#1 -135982498#0 -150052414#2 -150052414#1 -150052414#0 -150052412 260210045 260210046 149955205#2 149955205#3 32064573#0 23275370#3 23275370#5 55302014#0 55302014#2 -24589437#10 -24589437#7 140225316"/>
    </vehicle>
    <vehicle id="28" depart="28.00">
        <route edges="-299421433 -288575512 288575513 23301386 23453128#2 23453128#3 23453129 288787060#0 288787060#1 -32064529 23275345#4 23275345#5 23275345#6 23275345#7 23275345#8 23275345#9 23275345#10 23275345#11 149955204 23183655#0 23183655#1 298745601#1 298745601#3 298745601#4 23276348 23276384 23271629#2 23184464#0 23184464#1 135982505#4 135982505#5 135982505#6 135982505#7 135982505#8 23271701#7 95408281#0 95408281#1 132262793 -33489760#1 23271710 23271717#0 33523238#0 33523238#1 -33523355#4 -33523355#3 -33523355#2 -33523355#1 -33523355#0 23276766 248200212#0 248200212#2 33523466#0 33523402#0 83202926 156231178#0 156231178#1 156231178#2 156231178#3 156231178#4 96199140#0 96199140#1 96199140#2 96199140#3 96199140#4 96199140#5 96199140#6"/>
    </vehicle>
    <vehicle id="29" depart="29.00">
        <route edges="32242282#2 152026706 23218805 23189293#8 23189293#10 32210009#1 238688553#1 298745600#1 23271629#0 23271629#1 23271629#2 260898977#0 260898977#1 260898977#2 260898977#3 260898977#4 260898977#5 260898977#6 260898977#7 32942367 296932687#1 23288872#0 23288872#1 -135982498#1 -135982498#0 -150052414#2 -150052414#1 -150052414#0 -150052412 -150052413#1 -150052413#0 -49403726#4 -49403726#3 -23296256#0"/>
    </vehicle>
    <vehicle id="30" depart="30.00">
        <route edges="151732550 151732532#1 151732544#4 -151732528#3 -151732528#2 -151732528#1 -151732528#0 -23296607#1 -34524142#4 -34524142#1 -131881833 --150606#4 --150606#2 --150606#1 -23296623#1 150018080#0 293300505#4 293300503 205519269#0 -23185864#7 -23185864#4 -23185864#3 -260481406#13 -260481406#11 -260481406#9 -260481406#8 -260481406#7 -260481406#6 -260481406#4 -260481406#3 -260481406#2 -260481406#1 93783754#0 93783754#1 -176209 77955974 231111018#0 231111018#1 231111018#2 43205393#3 43205393#4 23452985#0 23452985#2 23621960#0 23621960#1 41277857#0 41277857#5 23443899 24589437#1"/>
    </vehicle>
    <vehicle id="31" depart="31.00">
        <route edges="-289800193#0 23275345#2 23275345#3 23275345#4 23275345#5 23275345#6 23275345#7 23275345#8 23275345#9 23275345#10 23275345#11 149955204 23183655#0 23183655#1 298745601#1 298745601#3 298745601#4 23276348 23276384 23271629#2 23184464#0 23184464#1 135982505#4 135982505#5 135982505#6 135982505#7 135982505#8 23271701#7 95408281#0 95408281#1 132262793 -33489760#1 23271710 23271717#0 33523238#0 33523238#1 -33523355#4 -33523355#3 -33523355#2 -33523355#1 -33523355#0 23276766 23276195#0 -231108881 -30824033#2 -30824033#0"/>
    </vehicle>
    <vehicle id="32" depart="32.00">
        <route edges="23295215#0 23295290 34549615 39216791#1 39216791#2 39216791#3 151737991#2 151737991#3 151737994#0 151737994#1 151737993#0 23296535#0"/>
    </vehicle>
    <vehicle id="33" depart="33.00">
        <route edges="23271799#1 23271799#2 23271799#3 23271799#4 34036620#1 -34036609#1 -34036609#0 30893573 34347629#2 30887578#0 30887578#1 95408276#7 23189459#0 23271841#0 23271841#1 23271841#2 23271841#3 23276253 -135982509 -135982498#4 -135982498#1 -135982498#0 -150052414#2 -150052414#1 -150052414#0 -150052412 260210045 260210046 149955205#2 149955205#3 32064573#0 23275370#3 23275370#5 55302014#0 55302014#2 -31743212#2 -31743212#1 23275345#0 23275345#2 23275345#3 23275345#4 23275345#5"/>
    </vehicle>
    <vehicle id="34" depart="34.00">
        <route edges="23218811#1 250220668 32942493#1 32942493#2 23185864#0 23185864#4 32479265#0 23275873#0 170680117"/>
    </vehicle>
    <vehicle id="35" depart="35.00">
        <route edges="23296587#1 23296587#2 151824720 151824736#0 151824736#1 231109701 80655884#5 80655884#6 151824735#0 151824735#1 151824730#0 151824730#1 132006073#0 132006073#2 151737993#0 151737993#1 132003833#0 132003833#1 132003833#2 151737991#0 151737991#2 151737991#3 23288761#0 23288761#1 23288761#3 --150606#4 --150606#2 --150606#1 -23296623#1 150018080#0 293300505#4 293300503 205519269#0 -23185864#7 -23185864#4 -23185864#3 -260481406#13 -260481406#11 -260481406#9 -260481406#8 -260481406#7 -260481406#6 -260481406#4 -260481406#3 -260481406#2 -260481406#1 93783754#0 93783754#1 -176209 77955974 231111018#0 231111018#1 231111018#2 43205393#3 43205393#4 23452985#0 23452985#2 23621960#0 23621960#1 31785433#0 199915505#0 199915505#1 40874980#4 40874980#0 217109091#0 217109091#2 25077716#0"/>
    </vehicle>
    <vehicle id="36" depart="36.00">
        <route edges="-23276054#1 -23276054#0 -23276047 -205409334#3 -205409334#1 -205409334#0 -32479333#1 -32942505#7 -32942505#2 -82544186#2 8116114 11480374#0 11480374#2 11480374#3 11480374#4 11480374#6 11480374#7 11480374#8 11480374#9 11480374#10 11480374#11 11480374#12 11480374#13 260898977#0 260898977#1 260898977#2 260898977#3 260898977#4 260898977#5 260898977#6 260898977#7 32942367 296932687#1 23288872#0 23288872#1 -135982498#1 -135982498#0 -150052414#2 -150052414#1 -150052414#0 -150052412 260210045 260210046 149955205#2 149955205#3 32064573#0 23275370#3 23275370#5 55302014#0 55302014#2 -31743212#2 -31743212#1 24148583 55302016#0 259721587 292165138#0 259721588 -259721583#3 -259721583#2 -259721583#1"/>
    </vehicle>
    <vehicle id="37" depart="37.00">
        <route edges="40872975#2 40872975#3 77960510#0 -32003370#1 -23452985#1 43205393#1 23453044#0 33831606 23453044#4 33831608 97076091 34395278#1 93783755#0 93783755#1 23288823#0 23288823#1 23288823#2 23213150#0 172198432 23210836#0 23210836#2 32242348"/>
    </vehicle>
    <vehicle id="38" depart="38.00">
        <route edges="132003833#0 151732541#0 151732541#1 151737998#0 151737998#1 23295215#0 23295290 23295321#0 23295321#1 281681812#2 -80655891#1 -80655891#0 -23275450#5 -23275450#4 -23275450#3 -23275450#2 -23275450#1 -23253102 -32942500#1 -32942500#0 -205409334#3 -205409334#1 -205409334#0 -32479333#1 -8116113#9 32242801"/>
    </vehicle>
    <vehicle id="39" depart="39.00">
        <route edges="231109180#1 -23290171 163787530#22 163787530#23 83202928 23271744 33757835#0 33757835#1 82549439 82549438 23185863#0 23185863#1 82549445 23253102 80655879#0 80655879#1 80655879#3 80655879#4 80655879#6 80655879#7 80655879#9 43469287#0 43469287#1 43469287#2 43469287#3 150018086#0 205519269#0 -23185864#7 -23185864#4 -23185864#3 -260481406#13 -260481406#11 -260481406#9 -260481406#8 -260481406#7 -236093055#1 -236093055#0 -236093054 -34394634#2 -34394634#1 -34394634#0 23218857 23184327#4 23184327#5 34395273#0 34395273#2 34395064#0"/>
    </vehicle>
    <vehicle id="40" depart="40.00">
        <route edges="215340950#0 215340950#1 215340952#0 23295287#2 23295287#4 281681813#6 -23295182#1 -23295182#0 293300507#1 293300507#2 34550242#0 34550242#1 33831421#0 33831421#1 33832061 33832063 -23275450#2 -23275450#1 -23253102 -32942500#1 -32942500#0 -205409334#3 -205409334#1 -205409334#0 -32479333#1 -32942505#7 -32942505#2 -82544186#2 8116114 32941914#0 32941914#1 32941914#2 32941914#5 32941914#6 95408276#0 95408276#1 95408276#2 95408276#3 95408276#4 95408276#5 95408276#6 95408276#7 95408276#8 32812916#1 32812916#2 135982508 135982501 43188683 -135982534#1 -135982534#0 -135982507#1 101354740#0 101354740#2 101354740#3"/>
    </vehicle>
    <vehicle id="41" depart="41.00">
        <route edges="207243457#2 -37711921#2 35742705#1 231109108#0 23837911#1 -292179253#1 23288931#7 23837909#0 82549440#3"/>
    </vehicle>
    <vehicle id="42" depart="42.00">
        <route edges="35016111#2 35016111#3 --176209 -176180#0 -176180#1 260481406#0 260481406#2 260481406#3 260481406#4 260481406#5 260481406#7 23189537#1 23189537#2 34394433#0"/>
    </vehicle>
    <vehicle id="43" depart="43.00">
        <route edges="-23295182#1 -23295182#0 293300507#1 281694196 34549991#0 34549991#1 -34549675#1 281681811#1 239881751#0 239881751#1 151824716 151824728#0 151824728#2 151824728#4 34524852 23289608#0 23289608#1 23289608#2 23289608#3 23289608#4 23289608#5 23289608#6 23289608#7 -27032657#2"/>
    </vehicle>
    <vehicle id="45" depart="45.00">
        <route edges="35916524 35916523 23290103#1 26256667 23289833#0 23289833#2 132648781 -257707685#1 -257707685#0 -23289817 -27032657#2 -27032657#1 -27032657#0 23296590#0 23296590#1 34549810 23288757#4 23288757#5 151824728#0 151824728#2 151824728#4 34524852 -34524834 151772101 34524878#0 34524878#1 34524878#2 33832076 43469298#0 43469298#1 43469298#2 43469298#4 43469298#5 -32942500#1 -32942500#0 -205409334#3 -205409334#1 -205409334#0 -32479333#1 -32942505#7 -32942505#2 -82544186#2 8116114 11480374#0 11480374#2 11480374#3 11480374#4 11480374#6 11480374#7 11480374#8 11480374#9 11480374#10 11480374#11 11480374#12 11480374#13 260898977#0 260898977#1 260898977#2 260898977#3 260898977#4 260898977#5 260898977#6 260898977#7 32942367 296932687#1 23288872#0 23288872#1 -135982498#1 -135982498#0 -150052414#2 -150052414#1 -150052414#0 -150052412 260210045 260210046 149955205#2 149955205#3 149955205#4 -253811695#5 24788925#0 39673919#0 39673919#1 39673919#2 260210805#0 -171597116#1 -171597116#0"/>
    </vehicle>
    <vehicle id="46" depart="46.00">
        <route edges="-49480927#0 132262795#1 135982518 49480926#0 -231107740 135982534#1 132262791 26996169 135982508 135982501 23288915 135982488#0 135982488#1 135982476#0 135982476#1 135982476#3 135982476#4 135982476#5 23295986#1 23288931#1 23288931#2 23288931#4 23288931#7 23837909#0 23837909#4 23837909#5 23837909#6 23288945#0 23288945#1 23288945#2 23288945#4 23288945#5 151772110#0 34524834 23289608#0 23289608#1 23289608#2 23289608#3 23289608#4 23289608#5 23289608#6 23289608#7 23289817 257707685#0 257707685#1 132648782#0"/>
    </vehicle>
    <vehicle id="47" depart="47.00">
        <route edges="23290069#0 35855797 -35829123#0 163787530#10 163787530#11 163787530#12 163787530#13 163787530#14 163787530#15 163787530#16 163787530#17 163787530#18 163787530#19 163787530#20 163787530#21 163787530#22 163787530#23 83202928 23271744 33757835#0 33757835#1 82549439 82549438 23185863#0 23185863#1 82549445 -32942500#1 -32942500#0 -205409334#3 -205409334#1 -205409334#0 -32479333#1 -32942505#7 -32942505#2 -82544186#2 8116114 11480374#0 11480374#2 11480374#3 11480374#4 11480374#6 11480374#7 11480374#8 11480374#9 11480374#10 11480374#11 11480374#12 11480374#13 260898977#0 260898977#1 260898977#2 260898977#3 260898977#4 260898977#5 260898977#6 260898977#7 32942367 296932687#1 23288872#0 23288872#1 -135982498#1 -135982498#0 -150052414#2 -150052414#1 -150052414#0 -150052412 -150052413#1 -150052413#0 -49403726#4 -49403726#3 -23296256#0"/>
    </vehicle>
    <vehicle id="48" depart="48.00">
        <route edges="-30618662#1 230601119 23290208#0 23290245 23290232#0 23290232#1 23290208#3 35204667#1 35204667#2 35204667#3 35174327#0"/>
    </vehicle>
    <vehicle id="49" depart="49.00">
        <route edges="-302533365 149955205#1 -260210046 32479531#0 32479531#1 32479531#2 150052414#0 150052414#1 150052414#2 135982498#0 23288888#3 34351517 236470544#0"/>
    </vehicle>
    <vehicle id="50" depart="50.00">
        <route edges="260898977#1 260898977#2 260898977#3 260898977#4 23271947#0 23183655#1 298745601#1 298745601#3 298745601#4 298745601#5 298745600#0 298745600#1 298745600#2 298745600#3 238688597 238688596#1 238688596#2 238688596#3 238688596#4 238688596#5 238688596#6 238688596#9 238688596#10 82544186#0 32942505#0 32942505#3 -8116113#9 -8116113#7 -34561269"/>
    </vehicle>
    <vehicle id="51" depart="51.00">
        <route edges="150338565 -150338570 150338544#3 -176264#1 -176262 151732533#1 151732544#1 151732544#2 151732544#3 151732544#4 -151732528#3 -151732528#2 -151732528#1 -151732528#0 -23296607#1 23296535#5 -151824711#2 -151824711#0 151824730#0 151824730#1"/>
    </vehicle>
    <vehicle id="52" depart="52.00">
        <route edges="260898977#4 23271947#0 32942447 172198432 23210836#0 23210836#2 23210836#3 --176209 -176180#0 -176180#1 260481406#0 260481406#2 260481406#3 260481406#4 260481406#5 260481406#7 260481406#8 260481406#9 260481406#10 260481406#12 23185864#0 23185864#4 23185864#5 205519269#1 150018078 293300505#0 150018081#0 23296623#0 -150606#0 -150606#2 -150606#3 131881833 34524142#0 34524142#2 23296535#5 151732540 -27032615#1 -27032615#0 23296606"/>
    </vehicle>
    <vehicle id="53" depart="53.00">
        <route edges="23218811#0 23218811#1 250220668 32942493#1 32942493#2 -260481406#13 -260481406#11 -260481406#9 23189252#0 23189252#1 23189252#2 23189252#3 23189266#0 23189266#1 23189266#2 23189293#6 23189293#8 23189293#10 32210009#1 238688553#1 298745600#1 23271629#0 23296421#0 34348079 11480374#11 23276403 135982505#7 135982505#8 23271701#7 95408281#0 95408281#1 132262793 23271775 23271780#0 23271780#1 23271780#3 34036585 132262786#1 132262786#0 23271808 34036609#0"/>
    </vehicle>
    <vehicle id="54" depart="54.00">
        <route edges="259721591#1 259721591#2 -260210046 32479531#0 32479531#1 32479531#2 150052414#0 150052414#1 150052414#2 135982498#0 23288888#3 23288888#5 23288868 83078456#0 83078456#1 301242139 23210836#0 23210836#2 23210836#3 77955974 23288787#0 23288787#2 23288787#3 23288767#0 23288767#2 23288767#3 23288767#4 23288767#5 23288767#6 23288767#7 23288767#8 23288767#9 23277071#0 23277071#2 205519278#1"/>
    </vehicle>
    <vehicle id="55" depart="55.00">
        <route edges="-260210044 150052414#1 33747234 33747765#3 33747765#4 23288872#5 135982516#1 135982516#4 135982489 135982511#1 135982511#2 135982511#3 135982511#4 135982511#5 135982511#6 135982530 23288915 135982488#0 135982488#1 135982476#0 135982476#1 135982476#3 135982476#4 135982476#5 23295986#1 23288931#1 23288931#2 -231108881 292179033#0"/>
    </vehicle>
    <vehicle id="56" depart="56.00">
        <route edges="-35855797 23290069#1 23290069#2 23290069#3 23289967#3 23289967#4 23290104 119095431 163787530#15 163787530#16 163787530#17 163787530#18 163787530#19 163787530#20 163787530#21 163787530#22 163787530#23 83202928 23271744 33757835#0 33757835#1 82549439 82549438 23185863#0 23185863#1 82549445 -32942500#1 -32942500#0 -205409334#3 -205409334#1 -205409334#0 -32479333#1 -32942505#7 -32942505#2 -82544186#2 8116114 11480374#0 11480374#2 11480374#3 11480374#4 11480374#6 11480374#7 11480374#8 11480374#9 11480374#10 11480374#11 11480374#12 11480374#13 260898977#0 260898977#1 260898977#2 260898977#3 260898977#4 260898977#5 260898977#6 260898977#7 32942367 296932687#1 23288872#0 23288872#1 -135982498#1 -135982498#0 -150052414#2 -150052414#1 -150052414#0 -150052412 260210045 260210046 149955205#2 149955205#3 32064573#0 23275370#3 23275370#5 55302014#0"/>
    </vehicle>
    <vehicle id="57" depart="57.00">
        <route edges="23275370#2 23275370#3 23275370#5 55302014#0 55302014#2 -31743212#2 -31743212#1 23275345#0 23275345#2 23275345#3 23275345#4 23275345#5 23275345#6 23275345#7 23275345#8 23275345#9"/>
    </vehicle>
    <vehicle id="58" depart="58.00">
        <route edges="23296243#0 150052413#1 150052412 150052414#0 150052414#1 150052414#2 135982498#0 23288888#3 23288888#5 23288868 83078456#0 83078456#1 301242139 23210836#0 23210836#2 23210836#3 --176209 -176180#0 -176180#1 260481406#0 260481406#2 260481406#3 260481406#4 260481406#5 260481406#7 260481406#8 260481406#9 260481406#10 260481406#12 23185864#0 23185864#4 23185864#5 205519269#1 150018078 293300505#0 150018081#0 23296623#0 -150606#0 -150606#2 -150606#3 131881833 34524142#0 34524142#2 23296607#0 151732528#0 151732528#1 151732528#2 151732528#3 151732544#5 151732544#0 151732544#1 151732544#2 151732544#3"/>
    </vehicle>
    <vehicle id="59" depart="59.00">
        <route edges="148844994 32941914#6 95408281#0 95408281#1 132262793 -33489760#1 23271710 23271717#0 95408277#0 95408277#1 95408277#3 95408277#4 95408277#5 95408277#6 23185863#0 23185863#1 82549445 23253102 23275450#0 23275450#2 23275450#3 23275450#4 151766115#0 151766115#1 281697322"/>
    </vehicle>
    <vehicle id="60" depart="60.00">