<?xml version="1.0" encoding="UTF-8"?>

<!-- generated on Mon Oct  8 17:31:15 2018 by SUMO duarouter Version 0.32.0
<?xml version="1.0" encoding="UTF-8"?>

<configuration xmlns:xsi="http://www.w3.org/2001/XMLSchema-instance" xsi:noNamespaceSchemaLocation="http://sumo.dlr.de/xsd/duarouterConfiguration.xsd">

    <input>
        <net-file value="data/bolognaringway.net.xml"/>
        <route-files value="trips.trips.xml"/>
    </input>

    <output>
        <output-file value="data/bolognaringwayRandom2.rou.xml"/>
        <alternatives-output value="data/bolognaringwayRandom2.rou.alt.xml"/>
    </output>

    <processing>
        <ignore-errors value="true"/>
    </processing>

    <time>
        <begin value="0"/>
        <end value="1000.0"/>
    </time>

    <report>
        <no-warnings value="true"/>
        <no-step-log value="true"/>
    </report>

</configuration>
-->

<routes xmlns:xsi="http://www.w3.org/2001/XMLSchema-instance" xsi:noNamespaceSchemaLocation="http://sumo.dlr.de/xsd/routes_file.xsd">
    <vehicle id="0" depart="0.00">
        <route edges="-87572864#2 -87572864#1 -207243458#0 -37711923#2 -37711923#1 -37711923#0 -37711918 30824033#1 292179033#0 292179033#2 292179033#3 292179033#4 292179033#5 23295984#1 23295984#2 23296952#1 34035752#0 34035752#1 34035752#2 34035752#3 95408280 23271710 23271717#0 33523238#0 33523238#1 -33523355#4"/>
    </vehicle>
    <vehicle id="1" depart="50.00">
        <route edges="148678215#3 148678215#4 -23296535#7 151732540 23296613 151732528#0 151732528#1 23296614#0 151732550 151732532#1"/>
    </vehicle>
    <vehicle id="2" depart="100.00">
        <route edges="34394736#0 34394885 34394634#2 236093054 236093055#0 236093055#1 260481406#7 260481406#8 260481406#9 260481406#10 260481406#12 23185864#0 23185864#4 32479265#0 23189364#0 23189364#1 23189364#2 -43469287#2 -43469287#1 -43469287#0 -80655879#9 -80655879#8 -80655879#6 -80655879#5 -80655879#3 -80655879#2 -80655879#0 -23253102 -32942500#1 31501819 33760134#0 33760134#1 23296863 33759876#0 -233088656#2 23296886#0 23296893"/>
    </vehicle>
    <vehicle id="3" depart="150.00">
        <route edges="259721587 292165138#0 259721588 -259721583#3 -259721583#2 -259721583#1 -259721583#0 83078456#1 301242139 23210836#0 23210836#2 23210836#3 77955974 23288787#0 23288787#2 23288787#3 23288767#0 23288767#2 23288767#3 23288767#4 23288767#5 23288767#6 23288767#7 23288767#8 23288767#9 23277071#0 23277071#2 205519278#1 80653048#0 80653048#1 149899476#1 150018091#0 150018091#1 80655884#0 80655884#2 34547601#0 148678215#0 23296625#0 -151824711#0"/>
    </vehicle>
    <vehicle id="5" depart="250.00">
        <route edges="33758430 30853431#1 30044974#1 30959664#0 30959664#1 30959664#2 -23296863 33759886#0 33759886#1 30044975#0 30044975#1 23276089#1 23276089#2 95408277#5 95408277#6 23271728#0 23271728#1 23276766 248200212#0 248200212#2 33523578#0 33523578#3 82549440#0 82549440#1 82549440#2 23837909#4 23837909#5 23290191#0"/>
    </vehicle>
    <vehicle id="6" depart="300.00">
        <route edges="-231108881 -30824033#2 37711918 37711923#0 37711923#1 37711923#2 37711923#3 207243458#1 37711921#1 35742705#1 231109108#0 23837911#1 -292179253#1 23288931#7 23837909#0 23837909#4 23837909#5 23837909#6 23288945#0 23288945#1 23288945#2 23288945#4 23288945#5 151772110#0 34524834 23289608#0 23289608#1 -63067956#2 -63067956#1 23296590#1 34549810 23288757#4 23288757#5 151824728#0 151824728#2 151824728#4 34524852 151772099"/>
    </vehicle>
    <vehicle id="7" depart="350.00">
        <route edges="259721591#0 259721591#1 259721591#2 -260210046 32479531#0 32479531#1 32479531#2 150052414#0 150052414#1 150052414#2 135982498#0 135982498#1 135982498#2 263613470 135982519 135982505#0 135982505#1 135982505#2 135982505#3 135982505#4 135982505#5 135982505#6 135982505#7 135982505#8 23271701#7 95408281#0 95408281#1 132262793 -33489760#1 23271710 23271717#0 95408277#0 95408277#1 95408277#3 95408277#4 95408277#5 95408277#6 23185863#0 23185863#1 82549445 23253102 80655879#0 80655879#1 80655879#3 80655879#4 80655879#6 80655879#7 80655879#9"/>
    </vehicle>
    <vehicle id="8" depart="400.00">
        <route edges="-23290171 163787530#22 163787530#23 83202928 23271744 33757835#0 33757835#1 82549439 82549438 23185863#0 23185863#1 82549445 23253102 80655879#0 80655879#1 80655879#3 80655879#4 80655879#6 80655879#7 80655879#9 43469287#0 43469287#1 43469287#2 43469287#3 150018086#0 205519269#0 -23185864#7 -23185864#4 -23185864#3 -260481406#13 -260481406#11 -260481406#9 -260481406#8 -260481406#7 -260481406#6 -260481406#4 -260481406#3 -260481406#2 -260481406#1 93783754#0 93783754#1 -176209 77955974 231111018#0 231111018#1 231111018#2 43205393#3 43205393#4 23452985#0 23452985#2 23621960#0 23621960#1 41277857#0 41277857#5 23443899 -299421429#2 -299421429#0 -32566032 23510982 46609624 25983203 32566059#0"/>
    </vehicle>
    <vehicle id="9" depart="450.00">
        <route edges="292165139 259721593 259721591#1 259721591#2 -260210046 32479531#0 32479531#1 32479531#2 150052414#0 150052414#1 150052414#2 135982498#0 135982498#1 135982498#2 263613470 135982519 135982505#0 135982505#1 135982505#2 135982505#3 135982505#4 135982505#5 135982505#6 135982505#7 135982505#8 23271701#7 95408281#0 95408281#1 132262793 -33489760#1 23271710 23271717#0 95408277#0 33758430 30853431#1 30044974#1 30959664#0 30959664#1 30959664#2 -23296863 23276104 32942500#0 32942500#1 -183743755"/>
    </vehicle>
    <vehicle id="10" depart="500.00">
        <route edges="24678292#2 151776232 33831425#0 33831425#1 33831425#2 33831425#3 43469298#1 43469298#2 33832062 33832063 -23275450#2 231264058 80655879#3 80655879#4 80655879#6 80655879#7 80655879#9 43469287#0 43469287#1 43469287#2 43469287#3 150018086#0 205519269#0 -23185864#7 -23185864#4 -23185864#3 -260481406#13 -260481406#11 -260481406#9 -260481406#8 -260481406#7 -260481406#6 -260481406#4 -260481406#3 -260481406#2 -260481406#1 93783754#0 93783754#1 -176209 77955974 231111018#0 231111018#1 231111018#2 43205393#3 43205393#4 23452985#0 23452985#2 23621960#0 23621960#1 41277857#0 41277857#5 23443899 -299421429#2 -299421429#0 -32566032 -25983186#1 -25983186#0 32565989"/>
    </vehicle>
    <vehicle id="11" depart="550.00">
        <route edges="151772108#0 34524636#0 34524636#1 23288960#0 23288960#2 23288960#3 23288960#4 23288960#6 23288960#7 151824722#0 151824722#2 151824722#3 151772103#0 151772103#1 151737996 151737991#0 151737991#2 151737991#3 23288761#0 23288761#1 23288761#3 --150606#4 --150606#2 --150606#1 -23296623#1 150018080#0 293300505#4 293300503 205519269#0 205519269#1 150018084#0 -34547555#2 23189355#0 23189355#2"/>
    </vehicle>
    <vehicle id="12" depart="600.00">
        <route edges="-150052412 -150052413#1 23296243#1 -23296296#1 23296227#1 150076246#0 33747684 33747765#0 33747765#1 33747765#2 33747765#3 23288888#1 23288888#2 135982498#1 135982498#2 263613470 135982519 135982505#0 135982505#1 135982505#2 135982505#3 135982505#4 135982505#5 135982505#6 135982505#7 23276410#0 23276410#1 11480374#10 11480374#11 11480374#12 34348107 23296421#1 298745600#3 238688597 238688596#1 238688596#2 238688596#3 238688596#4"/>
    </vehicle>
    <vehicle id="13" depart="650.00">
        <route edges="-38592259 30824033#0 30824033#1 292179033#0 292179033#2 292179033#3 292179033#4 292179033#5 23295984#1 23295984#2 23296952#1 34035752#0 34035752#1 23271781#0 23271781#1 132262786#0 34036550 34036579 -23271780#4"/>
    </vehicle>
    <vehicle id="14" depart="700.00">
        <route edges="37014427 34561125#1 34561269 -8116113#3 -8116113#1 32942493#0 32942493#1 32942493#2 23185864#0 23185864#4 23185864#5 205519269#1 150018078 293300505#0 150018081#0 23296623#0 -150606#0 -150606#2 -150606#3 131881833 34524142#0 34524142#2 23296535#5 151732540 -27032615#1 -27032615#0"/>
    </vehicle>
    <vehicle id="15" depart="750.00">
        <route edges="80655883#0 151766107 -23295321#3 -23295321#2 -23295321#1 33831417#1 281681813#3 281681813#4 281681811#0 281681811#1 239881751#0 239881751#1 151824716 151824728#0 151824728#2 151824728#4 34524852 151772099 23288957#2 23288957#4 23288957#5 23288944#0 231109180#0 231109180#1 231109180#2 96199160#0 163787534#0 163787534#1 35898143 163787530#14 163787530#15 262093410#0 262093410#1"/>
    </vehicle>
    <vehicle id="17" depart="850.00">
        <route edges="23296608#4 151732532#0 151732532#1 151732544#4 -151732528#3 -151732528#2 -151732528#1 -151732528#0 -23296607#1 -23296535#4 -23296535#2 -23296535#1 151737993#1 132003833#0 151732541#0 151732541#1 151737998#0 151737998#1 23295215#0 23295290 23295321#0 23295321#1 281681812#2 -80655891#1 -80655891#0 -23275450#5 -23275450#4 -23275450#3 -23275450#2 -23275450#1 -23253102 -32942500#1 -32942500#0 -205409334#3 -205409334#1 -205409334#0 -32479333#1 -32942505#7 -32942505#2 -82544186#2 8116114 32941914#0 32941914#1 32941914#2 32941914#5 32941914#6 95408276#0 95408276#1 95408276#2 95408276#3 95408276#4 95408276#5 95408276#6 95408276#7 95408276#8 32812916#1 32812916#2 135982508 135982501 43188683 135982518 49480926#0 -231107740 135982534#1"/>
    </vehicle>
    <vehicle id="18" depart="900.00">
        <route edges="23453128#3 23453129 288787060#0 288787060#1 -32064529 23275345#4 23275345#5 23275345#6 23275345#7 23275345#8 23275345#9 23275345#10 23275345#11 23210836#0 23210836#2 23210836#3 --176209 -176180#0 -176180#1 260481406#0 260481406#2 260481406#3 260481406#4 260481406#5 260481406#7 260481406#8 260481406#9 260481406#10 260481406#12 23185864#0 23185864#4 23185864#5 205519269#1 150018078 293300505#0 150018081#0 23296623#0 -150606#0 -150606#2 -150606#3 131881833 34524142#0 34524142#2 23296607#0 151732528#0 151732528#1 151732528#2"/>
    </vehicle>
    <vehicle id="19" depart="950.00">
        <route edges="33831425#0 33831425#1 33831425#2 33831425#3 43469298#1 43469298#2 43469298#4 43469298#5 -32942500#1 -32942500#0 -205409334#3 -205409334#1 -205409334#0 -32479333#1 -32942505#7 -32942505#2 -82544186#2 8116114 11480374#0 11480374#2 11480374#3 11480374#4 11480374#6 11480374#7 11480374#8 11480374#9 11480374#10 11480374#11 11480374#12 11480374#13 260898977#0 260898977#1 260898977#2 260898977#3 260898977#4 260898977#5 260898977#6 260898977#7 32942367 296932687#1 23288872#0 23288872#1 -135982498#1 -135982498#0 -150052414#2 33747234 33747765#3"/>
    </vehicle>
</routes>
